745

  C  15.60616997  15.71517777  15.42095945
  C  15.60616997  15.71517777  26.12995908
  C  28.78817013  15.71517777  15.42095945
  C  28.78817013  15.71517777  26.12995908
  C  28.78817013  27.28917812  15.42095945
  C  13.84505475  14.39805648  14.34470512
  C  27.02705491  14.39805648  14.34470512
  C  27.02705491  14.39805648  25.05370475
  C  27.02705491  25.97205684  14.34470512
  C  15.14216357  15.98716672  13.02107270
  C  15.14216357  15.98716672  23.73007233
  C  28.32416373  15.98716672  13.02107270
  C  28.32416373  15.98716672  23.73007233
  H  16.34699835  14.98138614  15.23462289
  H  16.34699835  14.98138614  25.94362252
  H  29.52899851  14.98138614  15.23462289
  H  29.52899851  14.98138614  25.94362252
  H  29.52899851  26.55538650  15.23462289
  H  15.83553673  16.28230373  16.32479900
  H  15.83553673  16.28230373  27.03379863
  H  29.01753689  16.28230373  16.32479900
  H  29.01753689  16.28230373  27.03379863
  H  12.83794995  14.02421632  14.49998553
  H  26.01995011  14.02421632  14.49998553
  H  26.01995011  14.02421632  25.20898516
  H  26.01995011  25.59821668  14.49998553
  H  26.01995011  25.59821668  25.20898516
  H  14.51997314  13.57398767  14.12731241
  H  14.51997314  13.57398767  24.83631205
  H  27.70197330  13.57398767  14.12731241
  H  27.70197330  13.57398767  24.83631205
  H  27.70197330  25.14798803  14.12731241
  H  27.70197330  25.14798803  24.83631205
  H  15.88694661  15.23832881  12.76191483
  H  15.88694661  15.23832881  23.47091446
  H  29.06894677  15.23832881  12.76191483
  H  29.06894677  15.23832881  23.47091446
  H  15.08020810  16.70359723  12.22218120
  H  15.08020810  16.70359723  22.93118084
  H  28.26220826  16.70359723  12.22218120
  H  28.26220826  16.70359723  22.93118084
  N  15.50335040  16.62026439  14.27509656
  N  15.50335040  16.62026439  24.98409619
  N  28.68535056  16.62026439  14.27509656
  N  28.68535056  16.62026439  24.98409619
  N  14.33806160  15.04157093  15.56767283
  N  27.52006176  15.04157093  15.56767283
  N  27.52006176  15.04157093  26.27667247
  N  27.52006176  26.61557128  15.56767283
  N  13.88855535  15.30314328  13.20312558
  N  13.88855535  15.30314328  23.91212521
  N  27.07055551  15.30314328  13.20312558
  N  27.07055551  15.30314328  23.91212521
  N  27.07055551  26.87714364  13.20312558
  N  16.16113214  17.79965482  14.29223093
  N  16.16113214  17.79965482  25.00123056
  N  29.34313230  17.79965482  14.29223093
  N  29.34313230  17.79965482  25.00123056
  N  13.38632116  15.65383539  16.37834394
  N  26.56832132  15.65383539  16.37834394
  N  26.56832132  15.65383539  27.08734358
  N  26.56832132  27.22783575  16.37834394
  N  12.74303954  16.05892536  12.93432977
  N  25.92503970  16.05892536  12.93432977
  N  25.92503970  16.05892536  23.64332940
  O  16.17431417  18.43969769  13.26630879
  O  16.17431417  18.43969769  23.97530842
  O  29.35631433  18.43969769  13.26630879
  O  29.35631433  18.43969769  23.97530842
  O  16.67391199  18.15613454  15.35456380
  O  16.67391199  18.15613454  26.06356344
  O  29.85591215  18.15613454  15.35456380
  O  29.85591215  18.15613454  26.06356344
  O  12.26848750  15.21055143  16.34407520
  O  25.45048767  15.21055143  16.34407520
  O  25.45048767  15.21055143  27.05307484
  O  25.45048767  26.78455179  16.34407520
  O  13.78046298  16.51725594  17.12369017
  O  26.96246314  16.51725594   6.41469054
  O  26.96246314  16.51725594  17.12369017
  O  26.96246314  16.51725594  27.83268980
  O  26.96246314  28.09125630  17.12369017
  O  24.88629813  15.66425199  13.39053321
  O  24.88629813  15.66425199  24.09953285
  O  24.88629813  27.23825235  13.39053321
  O  12.87090494  17.00336391  12.19755057
  O  12.87090494  17.00336391  22.90655020
  O  26.05290510  17.00336391  12.19755057
  O  26.05290510  17.00336391  22.90655020
  C  17.34883043   7.43282295  20.77545926
  C  17.34883043  19.00682331  10.06645963
  C  17.34883043  19.00682331  20.77545926
  C  30.53083059  19.00682331  10.06645963
  C  30.53083059  19.00682331  20.77545926
  C  19.10994565   8.74994424  19.69920493
  C  19.10994565  20.32394460   8.99020530
  C  19.10994565  20.32394460  19.69920493
  C  32.29194581  20.32394460  19.69920493
  C  17.81283683   7.16083399  18.37557251
  C  17.81283683  18.73483435   7.66657288
  C  17.81283683  18.73483435  18.37557251
  C  30.99483699  18.73483435  18.37557251
  H  16.60800205   8.16661458  20.58912271
  H  16.60800205  19.74061494   9.88012307
  H  16.60800205  19.74061494  20.58912271
  H  29.79000221   8.16661458  20.58912271
  H  29.79000221  19.74061494   9.88012307
  H  29.79000221  19.74061494  20.58912271
  H  17.11946367  18.43969735  10.97029918
  H  17.11946367  18.43969735  21.67929881
  H  30.30146383  18.43969735  10.97029918
  H  30.30146383  18.43969735  21.67929881
  H  20.11705045   9.12378440  19.85448534
  H  20.11705045  20.69778476   9.14548571
  H  20.11705045  20.69778476  19.85448534
  H  33.29905061  20.69778476  19.85448534
  H  18.43502726   9.57401304  19.48181223
  H  18.43502726  21.14801340   8.77281260
  H  18.43502726  21.14801340  19.48181223
  H  31.61702742   9.57401304  19.48181223
  H  31.61702742  21.14801340  19.48181223
  H  17.06805379   7.90967190  18.11641464
  H  17.06805379  19.48367226  18.11641464
  H  30.25005395   7.90967190  18.11641464
  H  30.25005395  19.48367226  18.11641464
  H  17.87479230   6.44440349  17.57668102
  H  17.87479230  18.01840385  17.57668102
  H  17.87479230  18.01840385  28.28568066
  H  31.05679246  18.01840385  17.57668102
  N  17.45165000  18.10173668   8.92059674
  N  17.45165000  18.10173668  19.62959637
  N  30.63365016  18.10173668   8.92059674
  N  30.63365016  18.10173668  19.62959637
  N  18.61693880   8.10642979  20.92217265
  N  18.61693880  19.68043015  10.21317302
  N  18.61693880  19.68043015  20.92217265
  N  31.79893896  19.68043015  10.21317302
  N  31.79893896  19.68043015  20.92217265
  N  19.06644505   7.84485744  18.55762540
  N  19.06644505  19.41885780   7.84862576
  N  19.06644505  19.41885780  18.55762540
  N  32.24844521  19.41885780  18.55762540
  N  16.79386826  16.92234626   8.93773111
  N  16.79386826  16.92234626  19.64673075
  N  29.97586842  16.92234626   8.93773111
  N  29.97586842  16.92234626  19.64673075
  N  19.56867924   7.49416533  21.73284376
  N  19.56867924  19.06816569  11.02384413
  N  19.56867924  19.06816569  21.73284376
  N  32.75067940  19.06816569  11.02384413
  N  32.75067940  19.06816569  21.73284376
  N  20.21196086   7.08907536  18.28882958
  N  20.21196086  18.66307572   7.57982995
  N  20.21196086  18.66307572  18.28882958
  N  20.21196086  18.66307572  28.99782922
  N  33.39396102  18.66307572  18.28882958
  O  16.78068623  16.28230338   7.91180897
  O  16.78068623  16.28230338  18.62080861
  O  29.96268639  16.28230338   7.91180897
  O  29.96268639  16.28230338  18.62080861
  O  16.28108841  16.56586653  10.00006399
  O  16.28108841  16.56586653  20.70906362
  O  29.46308857  16.56586653  10.00006399
  O  29.46308857  16.56586653  20.70906362
  O  20.68651290   7.93744929  10.98957539
  O  20.68651290   7.93744929  21.69857502
  O  20.68651290  19.51144964  10.98957539
  O  20.68651290  19.51144964  21.69857502
  O  33.86851306  19.51144964  21.69857502
  O  19.17453742  18.20474513  11.76919035
  O  19.17453742  18.20474513  22.47818999
  O  32.35653758  18.20474513  11.76919035
  O  32.35653758  18.20474513  22.47818999
  O  21.25070243   7.48374872  18.74503303
  O  21.25070243  19.05774908   8.03603340
  O  21.25070243  19.05774908  18.74503303
  O  34.43270259  19.05774908  18.74503303
  O  20.08409546   6.14463681  17.55205038
  O  20.08409546  17.71863717   6.84305075
  O  20.08409546  17.71863717  17.55205038
  O  20.08409546  17.71863717  28.26105002
  O  33.26609562  17.71863717  17.55205038
  C  23.93983051   9.92817759  11.35153964
  C  23.93983051   9.92817759  22.06053927
  C  23.93983051  21.50217795  11.35153964
  C  23.93983051  21.50217795  22.06053927
  C  25.70094573   8.61105630  12.42779397
  C  25.70094573   8.61105630  23.13679360
  C  25.70094573  20.18505666  12.42779397
  C  25.70094573  20.18505666  23.13679360
  C  24.40383691  10.20016654  13.75142639
  C  24.40383691  10.20016654  24.46042602
  C  24.40383691  21.77416690  13.75142639
  C  24.40383691  21.77416690  24.46042602
  H  23.19900213   9.19438596  11.53787619
  H  23.19900213   9.19438596  22.24687583
  H  23.19900213  20.76838632  11.53787619
  H  23.19900213  20.76838632  22.24687583
  H  23.71046375  10.49530355  10.44770009
  H  23.71046375  10.49530355  21.15669972
  H  23.71046375  22.06930391  10.44770009
  H  23.71046375  22.06930391  21.15669972
  H  13.52605037  19.81121650  12.27251356
  H  13.52605037  19.81121650  22.98151319
  H  26.70805053   8.23721614  12.27251356
  H  26.70805053   8.23721614  22.98151319
  H  26.70805053  19.81121650  12.27251356
  H  26.70805053  19.81121650  22.98151319
  H  25.02602734   7.78698749  12.64518667
  H  25.02602734   7.78698749  23.35418630
  H  25.02602734  19.36098785  12.64518667
  H  25.02602734  19.36098785  23.35418630
  H  23.65905387   9.45132863  14.01058426
  H  23.65905387   9.45132863  24.71958389
  H  23.65905387  21.02532899  14.01058426
  H  23.65905387  21.02532899  24.71958389
  H  24.46579238  10.91659705  14.55031788
  H  24.46579238  10.91659705  25.25931751
  H  24.46579238  22.49059741  14.55031788
  H  24.46579238  22.49059741  25.25931751
  N  24.04265008  10.83326421  12.49740253
  N  24.04265008  10.83326421  23.20640216
  N  24.04265008  22.40726457  12.49740253
  N  24.04265008  22.40726457  23.20640216
  N  25.20793888   9.25457075  11.20482625
  N  25.20793888   9.25457075  21.91382589
  N  25.20793888  20.82857110  11.20482625
  N  25.20793888  20.82857110  21.91382589
  N  25.65744513   9.51614310  13.56937350
  N  25.65744513   9.51614310  24.27837314
  N  25.65744513  21.09014346  13.56937350
  N  25.65744513  21.09014346  24.27837314
  N  23.38486834  12.01265464  12.48026816
  N  23.38486834  12.01265464  23.18926779
  N  23.38486834  23.58665500  12.48026816
  N  23.38486834  23.58665500  23.18926779
  N  12.97767916  21.44083557  21.10315477
  N  26.15967932   9.86683521  10.39415514
  N  26.15967932   9.86683521  21.10315477
  N  26.15967932  21.44083557  10.39415514
  N  26.15967932  21.44083557  21.10315477
  N  13.62096078  21.84592554  13.83816932
  N  26.80296094  10.27192518  13.83816932
  N  26.80296094  10.27192518  24.54716895
  N  26.80296094  21.84592554  13.83816932
  N  26.80296094  21.84592554  24.54716895
  O  23.37168631  12.65269752  13.50619029
  O  23.37168631  12.65269752  24.21518993
  O  23.37168631  24.22669787  13.50619029
  O  23.37168631  24.22669787  24.21518993
  O  22.87208849  12.36913436  11.41793528
  O  22.87208849  12.36913436  22.12693492
  O  22.87208849  23.94313472  11.41793528
  O  22.87208849  23.94313472  22.12693492
  O  14.09551282  20.99755161  21.13742351
  O  27.27751298   9.42355125  10.42842388
  O  27.27751298   9.42355125  21.13742351
  O  27.27751298  20.99755161  10.42842388
  O  27.27751298  20.99755161  21.13742351
  O  25.76553750  10.73025576   9.64880892
  O  25.76553750  10.73025576  20.35780855
  O  25.76553750  22.30425612   9.64880892
  O  25.76553750  22.30425612  20.35780855
  O  14.65970235  21.45125217  13.38196587
  O  14.65970235  21.45125217  24.09096550
  O  27.84170251   9.87725181  13.38196587
  O  27.84170251   9.87725181  24.09096550
  O  27.84170251  21.45125217  13.38196587
  O  27.84170251  21.45125217  24.09096550
  O  13.49309538  11.21636373  14.57494852
  O  13.49309538  22.79036409  14.57494852
  O  26.67509554  11.21636373  14.57494852
  O  26.67509554  11.21636373  25.28394815
  O  26.67509554  22.79036409  14.57494852
  O  26.67509554  22.79036409  25.28394815
  C  22.19717005  13.21982313  16.70603945
  C  22.19717005  13.21982313  27.41503909
  C  22.19717005  24.79382349  16.70603945
  C  20.43605483  14.53694442   7.07329415
  C  20.43605483  14.53694442  17.78229378
  C  20.43605483  14.53694442  28.49129342
  C  20.43605483  26.11094478  17.78229378
  C  33.61805499  14.53694442  17.78229378
  C  21.73316365  12.94783417   8.39692657
  C  21.73316365  12.94783417  19.10592620
  C  21.73316365  24.52183453  19.10592620
  H  22.93799843  13.95361476  16.89237601
  H  22.93799843  13.95361476  27.60137564
  H  22.93799843  25.52761512  16.89237601
  H  22.42653681  12.65269717  15.80219990
  H  22.42653681  12.65269717  26.51119954
  H  22.42653681  24.22669753  15.80219990
  H  22.42653681  24.22669753  26.51119954
  H  19.42895003  14.91078458   6.91801374
  H  19.42895003  14.91078458  17.62701337
  H  19.42895003  14.91078458  28.33601301
  H  19.42895003  26.48478494  17.62701337
  H  32.61095019  14.91078458  17.62701337
  H  21.11097322  15.36101322   7.29068685
  H  21.11097322  15.36101322  17.99968649
  H  21.11097322  15.36101322  28.70868612
  H  21.11097322  26.93501358  17.99968649
  H  34.29297338  15.36101322  17.99968649
  H  22.47794669  13.69667208   8.65608444
  H  22.47794669  13.69667208  19.36508407
  H  22.47794669  25.27067244  19.36508407
  H  21.67120818  12.23140367   9.19581806
  H  21.67120818  12.23140367  19.90481770
  H  21.67120818  23.80540403   9.19581806
  H  21.67120818  23.80540403  19.90481770
  N  22.09435048  12.31473650   7.14290271
  N  22.09435048  12.31473650  17.85190234
  N  22.09435048  12.31473650  28.56090198
  N  22.09435048  23.88873686  17.85190234
  N  20.92906168  13.89342997  16.55932607
  N  20.92906168  13.89342997  27.26832570
  N  20.92906168  25.46743033  16.55932607
  N  34.11106184  13.89342997  16.55932607
  N  20.47955543  13.63185762   8.21487369
  N  20.47955543  13.63185762  18.92387332
  N  20.47955543  25.20585798  18.92387332
  N  33.66155559  13.63185762  18.92387332
  N  22.75213222  11.13534608  17.83476797
  N  22.75213222  22.70934644  17.83476797
  N  19.97732124  13.28116551  15.74865496
  N  19.97732124  13.28116551  26.45765459
  N  19.97732124  24.85516587  15.74865496
  N  33.15932140  13.28116551  15.74865496
  N  19.33403962  12.87607554   8.48366950
  N  19.33403962  12.87607554  19.19266913
  N  19.33403962  24.45007590  19.19266913
  N  32.51603978  12.87607554  19.19266913
  N  32.51603978  24.45007590  19.19266913
  O  22.76531425  10.49530320   8.15169048
  O  22.76531425  10.49530320  18.86069011
  O  22.76531425  22.06930356   8.15169048
  O  22.76531425  22.06930356  18.86069011
  O  23.26491207  10.77886635  16.77243510
  O  23.26491207  10.77886635  27.48143473
  O  23.26491207  22.35286671  16.77243510
  O  23.26491207  22.35286671  27.48143473
  O  18.85948759  13.72444946  15.78292370
  O  18.85948759  13.72444946  26.49192333
  O  18.85948759  25.29844982  15.78292370
  O  32.04148775  13.72444946  15.78292370
  O  20.37146306  12.41774495  15.00330873
  O  20.37146306  12.41774495  25.71230837
  O  20.37146306  23.99174531  15.00330873
  O  20.37146306  23.99174531  25.71230837
  O  33.55346322  12.41774495  15.00330873
  O  18.29529805  13.27074890   8.02746605
  O  18.29529805  13.27074890  18.73646569
  O  18.29529805  24.84474926  18.73646569
  O  31.47729821  13.27074890  18.73646569
  O  31.47729821  24.84474926  18.73646569
  O  19.46190502  11.93163699   9.22044870
  O  19.46190502  11.93163699  19.92944833
  O  19.46190502  23.50563735   9.22044870
  O  19.46190502  23.50563735  19.92944833
  O  32.64390519  11.93163699  19.92944833
  O  32.64390519  23.50563735  19.92944833
  C  23.93983051   7.43282295  16.70603945
  C  23.93983051  19.00682331  16.70603945
  C  23.93983051  19.00682331  27.41503909
  C  12.51894557  20.32394460  17.78229378
  C  25.70094573   8.74994424  17.78229378
  C  25.70094573  20.32394460   7.07329415
  C  25.70094573  20.32394460  17.78229378
  C  25.70094573  20.32394460  28.49129342
  C  24.40383691   7.16083399  19.10592620
  C  24.40383691  18.73483435   8.39692657
  C  24.40383691  18.73483435  19.10592620
  H  23.19900213   8.16661458  16.89237601
  H  23.19900213  19.74061494   6.18337638
  H  23.19900213  19.74061494  16.89237601
  H  23.19900213  19.74061494  27.60137564
  H  23.71046375   6.86569699  15.80219990
  H  23.71046375  18.43969735  15.80219990
  H  23.71046375  18.43969735  26.51119954
  H  13.52605037  20.69778476  17.62701337
  H  26.70805053   9.12378440  17.62701337
  H  26.70805053  20.69778476  17.62701337
  H  26.70805053  20.69778476  28.33601301
  H  25.02602734   9.57401304  17.99968649
  H  25.02602734  21.14801340   7.29068685
  H  25.02602734  21.14801340  17.99968649
  H  25.02602734  21.14801340  28.70868612
  H  23.65905387   7.90967190  19.36508407
  H  23.65905387  19.48367226   8.65608444
  H  23.65905387  19.48367226  19.36508407
  H  24.46579238   6.44440349  19.90481770
  H  24.46579238  18.01840385   9.19581806
  H  24.46579238  18.01840385  19.90481770
  N  24.04265008   6.52773632  17.85190234
  N  24.04265008  18.10173668   7.14290271
  N  24.04265008  18.10173668  17.85190234
  N  24.04265008  18.10173668  28.56090198
  N  12.02593872  19.68043015  16.55932607
  N  25.20793888   8.10642979  16.55932607
  N  25.20793888  19.68043015  16.55932607
  N  25.20793888  19.68043015  27.26832570
  N  12.47544497  19.41885780  18.92387332
  N  25.65744513   7.84485744  18.92387332
  N  25.65744513  19.41885780   8.21487369
  N  25.65744513  19.41885780  18.92387332
  N  23.38486834   5.34834590  17.83476797
  N  23.38486834  16.92234626   7.12576834
  N  23.38486834  16.92234626  17.83476797
  N  23.38486834  16.92234626  28.54376761
  N  23.38486834  28.49634662  17.83476797
  N  12.97767916  19.06816569  15.74865496
  N  26.15967932   7.49416533  15.74865496
  N  26.15967932  19.06816569  15.74865496
  N  26.15967932  19.06816569  26.45765459
  N  13.62096078  18.66307572  19.19266913
  N  26.80296094   7.08907536  19.19266913
  N  26.80296094  18.66307572   8.48366950
  N  26.80296094  18.66307572  19.19266913
  O  23.37168631  16.28230338   8.15169048
  O  23.37168631  16.28230338  18.86069011
  O  23.37168631  16.28230338  29.56968974
  O  23.37168631  27.85630374  18.86069011
  O  22.87208849   4.99186617  16.77243510
  O  22.87208849  16.56586653   6.06343547
  O  22.87208849  16.56586653  16.77243510
  O  22.87208849  16.56586653  27.48143473
  O  22.87208849  28.13986689  16.77243510
  O  14.09551282  19.51144964  15.78292370
  O  27.27751298   7.93744929  15.78292370
  O  27.27751298  19.51144964  15.78292370
  O  27.27751298  19.51144964  26.49192333
  O  12.58353734  18.20474513  15.00330873
  O  25.76553750   6.63074477  15.00330873
  O  25.76553750  18.20474513  15.00330873
  O  25.76553750  18.20474513  25.71230837
  O  14.65970235  19.05774908  18.73646569
  O  27.84170251   7.48374872  18.73646569
  O  27.84170251  19.05774908   8.02746605
  O  27.84170251  19.05774908  18.73646569
  O  13.49309538  17.71863717  19.92944833
  O  26.67509554   6.14463681  19.92944833
  O  26.67509554  17.71863717   9.22044870
  O  26.67509554  17.71863717  19.92944833
  C  22.19717005  15.71517777  11.35153964
  C  22.19717005  15.71517777  22.06053927
  C  22.19717005  27.28917812  22.06053927
  C  20.43605483  14.39805648  12.42779397
  C  20.43605483  14.39805648  23.13679360
  C  20.43605483  25.97205684  12.42779397
  C  20.43605483  25.97205684  23.13679360
  C  33.61805499  14.39805648  12.42779397
  C  33.61805499  14.39805648  23.13679360
  C  21.73316365  15.98716672  13.75142639
  C  21.73316365  15.98716672  24.46042602
  C  21.73316365  27.56116708  13.75142639
  H  22.93799843  14.98138614  11.53787619
  H  22.93799843  14.98138614  22.24687583
  H  22.93799843  26.55538650  11.53787619
  H  22.93799843  26.55538650  22.24687583
  H  22.42653681  16.28230373  10.44770009
  H  22.42653681  16.28230373  21.15669972
  H  22.42653681  27.85630408  21.15669972
  H  19.42895003  14.02421632  12.27251356
  H  19.42895003  14.02421632  22.98151319
  H  19.42895003  25.59821668  12.27251356
  H  19.42895003  25.59821668  22.98151319
  H  32.61095019  14.02421632  12.27251356
  H  32.61095019  14.02421632  22.98151319
  H  21.11097322  13.57398767  12.64518667
  H  21.11097322  13.57398767  23.35418630
  H  21.11097322  25.14798803  12.64518667
  H  21.11097322  25.14798803  23.35418630
  H  22.47794669  15.23832881  14.01058426
  H  22.47794669  15.23832881  24.71958389
  H  22.47794669  26.81232917  14.01058426
  H  21.67120818  16.70359723  14.55031788
  H  21.67120818  16.70359723  25.25931751
  H  21.67120818  28.27759759  14.55031788
  H  34.85320834  16.70359723  14.55031788
  N  22.09435048  16.62026439  12.49740253
  N  22.09435048  16.62026439  23.20640216
  N  20.92906168  15.04157093  11.20482625
  N  20.92906168  15.04157093  21.91382589
  N  20.92906168  26.61557128  11.20482625
  N  20.92906168  26.61557128  21.91382589
  N  34.11106184  15.04157093  21.91382589
  N  20.47955543  15.30314328  13.56937350
  N  20.47955543  15.30314328  24.27837314
  N  20.47955543  26.87714364  13.56937350
  N  33.66155559  15.30314328  13.56937350
  N  22.75213222   6.22565446  12.48026816
  N  22.75213222   6.22565446  23.18926779
  N  22.75213222  17.79965482  12.48026816
  N  22.75213222  17.79965482  23.18926779
  N  19.97732124  15.65383539  10.39415514
  N  19.97732124  15.65383539  21.10315477
  N  19.97732124  27.22783575  21.10315477
  N  33.15932140  15.65383539  21.10315477
  N  19.33403962  16.05892536  13.83816932
  N  19.33403962  16.05892536  24.54716895
  N  32.51603978  16.05892536  13.83816932
  N  32.51603978  16.05892536  24.54716895
  O  22.76531425   6.86569734  13.50619029
  O  22.76531425   6.86569734  24.21518993
  O  22.76531425  18.43969769  13.50619029
  O  22.76531425  18.43969769  24.21518993
  O  23.26491207   6.58213418  22.12693492
  O  23.26491207  18.15613454  11.41793528
  O  23.26491207  18.15613454  22.12693492
  O  18.85948759  15.21055143  10.42842388
  O  18.85948759  15.21055143  21.13742351
  O  18.85948759  26.78455179  21.13742351
  O  32.04148775  15.21055143  10.42842388
  O  32.04148775  15.21055143  21.13742351
  O  20.37146306  16.51725594   9.64880892
  O  20.37146306  16.51725594  20.35780855
  O  20.37146306  28.09125630  20.35780855
  O  33.55346322  16.51725594  20.35780855
  O  18.29529805  15.66425199  13.38196587
  O  18.29529805  15.66425199  24.09096550
  O  31.47729821  15.66425199  13.38196587
  O  31.47729821  15.66425199  24.09096550
  O  19.46190502  17.00336391  14.57494852
  O  19.46190502  17.00336391  25.28394815
  O  32.64390519  17.00336391  14.57494852
  O  32.64390519  17.00336391  25.28394815
  C  15.60616997  13.21982313  10.06645963
  C  15.60616997  13.21982313  20.77545926
  C  15.60616997  24.79382349  20.77545926
  C  28.78817013  13.21982313  10.06645963
  C  28.78817013  13.21982313  20.77545926
  C  28.78817013  24.79382349  20.77545926
  C  13.84505475  14.53694442  19.69920493
  C  27.02705491  14.53694442   8.99020530
  C  27.02705491  14.53694442  19.69920493
  C  27.02705491  26.11094478  19.69920493
  C  15.14216357  12.94783417  18.37557251
  C  15.14216357  24.52183453  18.37557251
  C  28.32416373  12.94783417   7.66657288
  C  28.32416373  12.94783417  18.37557251
  C  28.32416373  24.52183453  18.37557251
  H  16.34699835  13.95361476   9.88012307
  H  16.34699835  13.95361476  20.58912271
  H  16.34699835  25.52761512  20.58912271
  H  29.52899851  13.95361476   9.88012307
  H  29.52899851  13.95361476  20.58912271
  H  29.52899851  25.52761512  20.58912271
  H  15.83553673  12.65269717  10.97029918
  H  15.83553673  12.65269717  21.67929881
  H  15.83553673  24.22669753  21.67929881
  H  29.01753689  12.65269717  10.97029918
  H  29.01753689  12.65269717  21.67929881
  H  29.01753689  24.22669753  10.97029918
  H  29.01753689  24.22669753  21.67929881
  H  12.83794995  14.91078458  19.85448534
  H  26.01995011  14.91078458   9.14548571
  H  26.01995011  14.91078458  19.85448534
  H  26.01995011  26.48478494  19.85448534
  H  14.51997314  15.36101322  19.48181223
  H  27.70197330  15.36101322   8.77281260
  H  27.70197330  15.36101322  19.48181223
  H  27.70197330  26.93501358  19.48181223
  H  15.88694661  13.69667208  18.11641464
  H  15.88694661  25.27067244  18.11641464
  H  29.06894677  13.69667208  18.11641464
  H  29.06894677  25.27067244  18.11641464
  H  15.08020810  12.23140367  17.57668102
  H  15.08020810  23.80540403  17.57668102
  H  28.26220826  12.23140367  17.57668102
  H  28.26220826  23.80540403  17.57668102
  N  15.50335040  12.31473650  19.62959637
  N  15.50335040  23.88873686  19.62959637
  N  28.68535056  12.31473650   8.92059674
  N  28.68535056  12.31473650  19.62959637
  N  28.68535056  23.88873686  19.62959637
  N  14.33806160  13.89342997  20.92217265
  N  27.52006176  13.89342997  10.21317302
  N  27.52006176  13.89342997  20.92217265
  N  27.52006176  25.46743033  20.92217265
  N  13.88855535  13.63185762  18.55762540
  N  27.07055551  13.63185762   7.84862576
  N  27.07055551  13.63185762  18.55762540
  N  27.07055551  25.20585798  18.55762540
  N  16.16113214  11.13534608  19.64673075
  N  16.16113214  22.70934644  19.64673075
  N  29.34313230  11.13534608  19.64673075
  N  29.34313230  22.70934644  19.64673075
  N  13.38632116  13.28116551  21.73284376
  N  26.56832132  13.28116551  11.02384413
  N  26.56832132  13.28116551  21.73284376
  N  26.56832132  24.85516587  11.02384413
  N  26.56832132  24.85516587  21.73284376
  N  12.74303954  12.87607554  18.28882958
  N  25.92503970  12.87607554   7.57982995
  N  25.92503970  12.87607554  18.28882958
  N  25.92503970  24.45007590  18.28882958
  O  16.17431417  10.49530320  18.62080861
  O  16.17431417  22.06930356  18.62080861
  O  29.35631433  10.49530320  18.62080861
  O  29.35631433  22.06930356  18.62080861
  O  16.67391199  10.77886635  20.70906362
  O  16.67391199  22.35286671  10.00006399
  O  16.67391199  22.35286671  20.70906362
  O  29.85591215  10.77886635  10.00006399
  O  29.85591215  10.77886635  20.70906362
  O  29.85591215  22.35286671  10.00006399
  O  29.85591215  22.35286671  20.70906362
  O  25.45048767  13.72444946  10.98957539
  O  25.45048767  13.72444946  21.69857502
  O  25.45048767  25.29844982  10.98957539
  O  25.45048767  25.29844982  21.69857502
  O  13.78046298  12.41774495  22.47818999
  O  26.96246314  12.41774495  11.76919035
  O  26.96246314  12.41774495  22.47818999
  O  26.96246314  23.99174531  11.76919035
  O  26.96246314  23.99174531  22.47818999
  O  24.88629813  13.27074890   8.03603340
  O  24.88629813  13.27074890  18.74503303
  O  24.88629813  24.84474926  18.74503303
  O  12.87090494  11.93163699  17.55205038
  O  26.05290510  11.93163699  17.55205038
  O  26.05290510  11.93163699  28.26105002
  O  26.05290510  23.50563735  17.55205038
  C  17.34883043   9.92817759  15.42095945
  C  17.34883043  21.50217795  15.42095945
  C  17.34883043  21.50217795  26.12995908
  C  30.53083059   9.92817759  15.42095945
  C  30.53083059  21.50217795  15.42095945
  C  30.53083059  21.50217795  26.12995908
  C  19.10994565   8.61105630  14.34470512
  C  19.10994565   8.61105630  25.05370475
  C  19.10994565  20.18505666  14.34470512
  C  19.10994565  20.18505666  25.05370475
  C  32.29194581  20.18505666  14.34470512
  C  32.29194581  20.18505666  25.05370475
  C  17.81283683  10.20016654  13.02107270
  C  17.81283683  10.20016654  23.73007233
  C  17.81283683  21.77416690  13.02107270
  C  17.81283683  21.77416690  23.73007233
  C  30.99483699  10.20016654  13.02107270
  C  30.99483699  10.20016654  23.73007233
  C  30.99483699  21.77416690  13.02107270
  C  30.99483699  21.77416690  23.73007233
  H  16.60800205   9.19438596  15.23462289
  H  16.60800205  20.76838632  15.23462289
  H  16.60800205  20.76838632  25.94362252
  H  29.79000221   9.19438596  15.23462289
  H  29.79000221  20.76838632  15.23462289
  H  29.79000221  20.76838632  25.94362252
  H  17.11946367  10.49530355  16.32479900
  H  17.11946367  22.06930391  16.32479900
  H  30.30146383  10.49530355  16.32479900
  H  30.30146383  22.06930391  16.32479900
  H  20.11705045   8.23721614  14.49998553
  H  20.11705045   8.23721614  25.20898516
  H  20.11705045  19.81121650  14.49998553
  H  20.11705045  19.81121650  25.20898516
  H  33.29905061  19.81121650  14.49998553
  H  18.43502726   7.78698749  14.12731241
  H  18.43502726  19.36098785  14.12731241
  H  18.43502726  19.36098785  24.83631205
  H  31.61702742  19.36098785  14.12731241
  H  31.61702742  19.36098785  24.83631205
  H  17.06805379   9.45132863  12.76191483
  H  17.06805379   9.45132863  23.47091446
  H  17.06805379  21.02532899  12.76191483
  H  17.06805379  21.02532899  23.47091446
  H  30.25005395   9.45132863  12.76191483
  H  30.25005395   9.45132863  23.47091446
  H  30.25005395  21.02532899  12.76191483
  H  30.25005395  21.02532899  23.47091446
  H  17.87479230  10.91659705  12.22218120
  H  17.87479230  10.91659705  22.93118084
  H  17.87479230  22.49059741  12.22218120
  H  17.87479230  22.49059741  22.93118084
  H  31.05679246  10.91659705  12.22218120
  H  31.05679246  10.91659705  22.93118084
  H  31.05679246  22.49059741  12.22218120
  H  31.05679246  22.49059741  22.93118084
  N  17.45165000  10.83326421  14.27509656
  N  17.45165000  10.83326421  24.98409619
  N  17.45165000  22.40726457  14.27509656
  N  17.45165000  22.40726457  24.98409619
  N  30.63365016  10.83326421  14.27509656
  N  30.63365016  10.83326421  24.98409619
  N  30.63365016  22.40726457  14.27509656
  N  30.63365016  22.40726457  24.98409619
  N  18.61693880   9.25457075  15.56767283
  N  18.61693880  20.82857110  15.56767283
  N  18.61693880  20.82857110  26.27667247
  N  31.79893896   9.25457075  15.56767283
  N  31.79893896  20.82857110  15.56767283
  N  19.06644505   9.51614310  13.20312558
  N  19.06644505   9.51614310  23.91212521
  N  19.06644505  21.09014346  13.20312558
  N  19.06644505  21.09014346  23.91212521
  N  32.24844521  21.09014346  13.20312558
  N  32.24844521  21.09014346  23.91212521
  N  16.79386826  12.01265464  14.29223093
  N  16.79386826  12.01265464  25.00123056
  N  16.79386826  23.58665500  14.29223093
  N  16.79386826  23.58665500  25.00123056
  N  29.97586842  12.01265464  14.29223093
  N  29.97586842  12.01265464  25.00123056
  N  29.97586842  23.58665500  14.29223093
  N  29.97586842  23.58665500  25.00123056
  N  19.56867924   9.86683521  16.37834394
  N  19.56867924  21.44083557  16.37834394
  N  19.56867924  21.44083557  27.08734358
  N  32.75067940   9.86683521  16.37834394
  N  32.75067940  21.44083557  16.37834394
  N  20.21196086  10.27192518  12.93432977
  N  20.21196086  10.27192518  23.64332940
  N  20.21196086  21.84592554  12.93432977
  N  20.21196086  21.84592554  23.64332940
  O  16.78068623  12.65269752  13.26630879
  O  16.78068623  12.65269752  23.97530842
  O  16.78068623  24.22669787  13.26630879
  O  16.78068623  24.22669787  23.97530842
  O  29.96268639  12.65269752  13.26630879
  O  29.96268639  12.65269752  23.97530842
  O  29.96268639  24.22669787  13.26630879
  O  29.96268639  24.22669787  23.97530842
  O  16.28108841  12.36913436  15.35456380
  O  16.28108841  12.36913436  26.06356344
  O  16.28108841  23.94313472  15.35456380
  O  29.46308857  12.36913436  15.35456380
  O  29.46308857  12.36913436  26.06356344
  O  29.46308857  23.94313472  15.35456380
  O  20.68651290   9.42355125  16.34407520
  O  20.68651290  20.99755161  16.34407520
  O  20.68651290  20.99755161  27.05307484
  O  33.86851306  20.99755161  16.34407520
  O  19.17453742  10.73025576  17.12369017
  O  19.17453742  22.30425612  17.12369017
  O  32.35653758  10.73025576  17.12369017
  O  32.35653758  22.30425612  17.12369017
  O  21.25070243   9.87725181  13.39053321
  O  21.25070243   9.87725181  24.09953285
  O  21.25070243  21.45125217  13.39053321
  O  21.25070243  21.45125217  24.09953285
  O  20.08409546  11.21636373  12.19755057
  O  20.08409546  11.21636373  22.90655020
  O  20.08409546  22.79036409  12.19755057
  O  20.08409546  22.79036409  22.90655020
