  72

 P   5.580382811659E+00  1.508564601058E+00  6.063351664478E-01
 P  -5.069194635434E+00 -1.572955164230E+00  6.241681674779E-01
 P  -3.722121826304E+00  3.765609354041E+00  6.334855292546E-01
 P  -1.093249281549E+00 -5.338207954303E+00  6.263751964188E-01
 P   1.624147539140E+00  5.212334402781E+00  6.659266047371E-01
 P   4.218252635005E+00 -3.843185910629E+00  6.353884805836E-01
 P  -1.300467395204E+00  5.404668670827E+00 -3.500594240676E+00
 P   5.752964555291E+00 -1.436309440176E+00 -3.529300302304E+00
 P  -3.728563570585E+00 -4.211424440272E+00 -3.527454605014E+00
 P   4.285924523128E+00  4.124531849410E+00 -3.474275883402E+00
 P  -5.290004711998E+00  1.267438154225E+00 -3.526641705002E+00
 P   1.817918648020E+00 -5.565117382659E+00 -3.521319390252E+00
 CO  5.580673543271E+00  1.478398477360E+00  3.749392395961E+00
 AL -5.111861964087E+00 -1.625960651374E+00  3.741911104275E+00
 AL -3.772670715394E+00  3.753594558038E+00  3.757554841312E+00
 AL -1.076751939388E+00 -5.348850689381E+00  3.746755917864E+00
 AL  1.575573567897E+00  5.208363027450E+00  3.784730314644E+00
 AL  4.241268918153E+00 -3.897408259164E+00  3.735737162626E+00
 AL -1.295642819339E+00  5.457283471023E+00 -3.698859208413E-01
 AL  5.816687695674E+00 -1.390617807062E+00 -4.076083493742E-01
 AL -3.790870843107E+00 -4.217198720855E+00 -4.210856107908E-01
 AL  4.320495601077E+00  4.131848398392E+00 -4.013435727950E-01
 AL -5.330722811488E+00  1.329164052018E+00 -4.019305809712E-01
 AL  1.828540870916E+00 -5.580148777443E+00 -3.974759456131E-01
 O   5.157149725558E+00  7.836391917463E-02  2.549291047033E-01
 O  -4.660989431254E+00 -1.470419725575E-01  2.347100988075E-01
 O  -2.301671938084E+00  4.183708681682E+00  2.461337691009E-01
 O  -2.165781641167E+00 -4.338620380827E+00  1.857182975283E-01
 O   2.699382322949E+00  4.214984296073E+00  2.209108093097E-01
 O   2.815542311438E+00 -4.289521508423E+00  2.180852209438E-01
 O  -2.203880148388E+00  4.282202711917E+00 -4.019771653198E+00
 O   5.047610305394E+00 -2.162224677377E-01 -4.163005761984E+00
 O  -2.285579798446E+00 -4.241195218051E+00 -4.047589121934E+00
 O   2.850458887586E+00  4.119699857745E+00 -4.013084937543E+00
 O  -4.670556405924E+00 -4.513182922924E-02 -4.018628572287E+00
 O   2.695983985010E+00 -4.432893159050E+00 -4.062529463731E+00
 O   5.104116883759E+00  1.885252526668E+00  2.022657279356E+00
 O  -4.662123241397E+00 -1.871065316840E+00  2.077152008286E+00
 O  -3.740059236304E+00  3.260837056747E+00  2.084167695410E+00
 O  -6.887927650518E-01 -5.041221848870E+00  2.080230944928E+00
 O   1.211057839593E+00  4.899664559963E+00  2.113158640106E+00
 O   4.199476141437E+00 -3.331305716018E+00  2.085478917936E+00
 O  -1.666779387855E+00  5.756046275251E+00 -2.047753854059E+00
 O   6.180718128817E+00 -1.102396771869E+00 -2.092019203478E+00
 O  -3.777209311380E+00 -4.736601087680E+00 -2.085313801167E+00
 O   4.307273752239E+00  4.696772088446E+00 -2.048530668988E+00
 O  -5.786859335613E+00  1.133828364218E+00 -2.074748065810E+00
 O   2.204507548048E+00 -5.903624811028E+00 -2.070695196566E+00
 O   4.928027613068E+00  2.496062775072E+00 -3.821245148257E-01
 O  -4.327551927134E+00 -2.558758722413E+00 -3.002645883404E-01
 O  -4.173380814986E+00  2.634205814478E+00 -3.062526597636E-01
 O   1.447284487011E-01 -5.151717102453E+00 -2.640352516858E-01
 O   3.911726751713E-01  5.034642709808E+00 -2.342738174804E-01
 O   4.672447321490E+00 -2.705838273217E+00 -2.973819226471E-01
 O   1.598383316595E-01  4.925338349638E+00 -3.558876157809E+00
 O   4.748625214263E+00 -2.597989340035E+00 -3.521891789316E+00
 O  -4.235036657129E+00 -2.760362365604E+00 -3.551584101185E+00
 O   4.806680579482E+00  2.667908391740E+00 -3.426494182988E+00
 O  -4.220848733472E+00  2.368905335382E+00 -3.580760041503E+00
 O   3.528377308101E-01 -5.102312648048E+00 -3.566064597062E+00
 O  -4.874019305008E+00 -5.278724874711E+00  4.648807750802E-01
 O  -6.596245067869E+00 -1.741860868589E+00  4.678666695750E-01
 O  -4.676118498785E+00  4.972682512699E+00  4.797477287504E-01
 O  -1.630557533719E+00 -6.781645973695E+00  5.226293067319E-01
 O   2.163602726009E+00  6.656518457386E+00  5.801834351460E-01
 O  -6.750985126567E+00  1.740531021607E+00  5.382056643696E-01
 O  -1.529193321732E+00  6.666847211359E+00  3.943290755520E+00
 O  -4.971183981884E+00  5.015187758193E+00  3.949314448962E+00
 O  -4.617325731955E+00 -5.096169795730E+00  3.877667241383E+00
 O  -6.833656906898E+00 -1.918791444637E+00  3.898846250700E+00
 O  -6.509499666503E+00  1.611385440370E+00  3.878062658458E+00
 O   2.016838522998E+00 -6.809198730517E+00  3.922894431161E+00
