  73

 P   5.431831686261E+00  1.476138737403E+00  6.986210630119E-01
 P  -5.153908129311E+00 -1.463391908035E+00  4.968231769103E-01
 P  -3.761392853748E+00  3.785273653864E+00  6.416519504385E-01
 P  -1.113569707370E+00 -5.552033398146E+00  6.534812095219E-01
 P   1.523285574336E+00  5.383441944616E+00  7.116158279135E-01
 P   4.036241308139E+00 -3.917292609103E+00  6.035863441635E-01
 P  -1.155694514789E+00  5.616009868060E+00 -3.503290405027E+00
 P   5.797452574387E+00 -1.477484708026E+00 -3.531532793086E+00
 TI -3.638242221372E+00 -4.367764768283E+00 -3.485561495013E+00
 P   4.264994284584E+00  4.072248635733E+00 -3.512124445946E+00
 P  -5.168857578278E+00  1.658514525145E+00 -3.518637641169E+00
 P   2.079791460120E+00 -5.855876434806E+00 -3.481844911105E+00
 AL  5.397340345692E+00  1.347745343884E+00  3.768018565224E+00
 TI -5.052297257286E+00 -1.380576892612E+00  3.782490385929E+00
 AL -3.648070485285E+00  4.000583485608E+00  3.773567754663E+00
 AL -7.444134091265E-01 -5.624880757957E+00  3.696491443223E+00
 AL  1.668396753958E+00  5.228414009216E+00  3.851248143347E+00
 AL  4.395575298988E+00 -4.036956941234E+00  3.681316366542E+00
 AL -1.401436126759E+00  5.654256694558E+00 -4.074174903044E-01
 AL  5.731677718889E+00 -1.550136089813E+00 -4.124825310742E-01
 AL -3.816863970287E+00 -4.240632517133E+00 -1.692960868098E-01
 AL  4.198294733450E+00  4.114190551984E+00 -3.790118930931E-01
 AL -5.484144296418E+00  1.464718074664E+00 -5.288231978586E-01
 AL  1.712341842236E+00 -5.761035527701E+00 -3.916400250243E-01
 O   5.365837847220E+00  6.009708510775E-02  1.318724902334E-01
 O  -5.109526119507E+00 -2.327345567029E-01 -4.337971748885E-01
 O  -2.510427324331E+00  4.380366615526E+00 -1.466091078513E-02
 O  -2.223205036654E+00 -4.491951110770E+00  5.497526603200E-01
 O   2.592973898944E+00  4.403666123224E+00  2.130603478945E-01
 O   2.639295110475E+00 -4.402668632709E+00  1.963789164028E-01
 O  -2.119839867094E+00  4.538144381765E+00 -3.985780768771E+00
 O   5.101504305971E+00 -1.524893520925E-01 -3.881335475846E+00
 O  -2.037912653832E+00 -4.599669163761E+00 -4.141283828358E+00
 O   2.818673329679E+00  4.060606111708E+00 -4.034075767201E+00
 O  -4.558530155483E+00  2.651862777221E-01 -3.634224747021E+00
 O   3.069051753749E+00 -4.798030182060E+00 -3.947513407432E+00
 O   4.847155224658E+00  1.476378873121E+00  2.125899513630E+00
 O  -4.729700900143E+00 -1.043140191131E+00  1.903499860887E+00
 O  -3.484997381970E+00  3.484628896778E+00  2.121096968066E+00
 O  -3.818417654725E-01 -5.381593676673E+00  1.997825888255E+00
 O   1.210216425391E+00  5.064937261868E+00  2.182285791847E+00
 O   4.017607953103E+00 -3.479223520618E+00  2.078335812054E+00
 O  -1.565405238855E+00  6.085333683810E+00 -2.097289817690E+00
 O   6.274421771592E+00 -1.447969554870E+00 -2.068599971732E+00
 O  -3.870600690954E+00 -4.800141209943E+00 -1.782352626461E+00
 O   4.302177396937E+00  4.570414091332E+00 -2.056387478023E+00
 O  -5.938217162091E+00  1.813936379109E+00 -2.187455859072E+00
 O   2.290581584996E+00 -6.149890030414E+00 -1.987703104479E+00
 O   4.609612850572E+00  2.411104488874E+00 -1.928249478175E-01
 O  -4.185811073209E+00 -2.529624876656E+00 -4.963417019549E-02
 O  -4.122299042461E+00  2.483706066349E+00 -9.200626606231E-02
 O  -2.575640131051E-02 -5.427221628006E+00 -4.423192268456E-01
 O   2.494588434948E-01  5.167538492499E+00 -1.161196541331E-01
 O   4.400683760978E+00 -2.686460935169E+00 -2.578328501710E-01
 O   2.759252317762E-01  5.050903540383E+00 -3.468375182635E+00
 O   4.763205428609E+00 -2.599110910256E+00 -3.695675037558E+00
 O  -4.129735613839E+00 -2.709609275772E+00 -3.809560663286E+00
 O   4.801009852669E+00  2.621228211658E+00 -3.528756379739E+00
 O  -4.057982341545E+00  2.712684925796E+00 -3.552424925757E+00
 O   6.581540472033E-01 -5.308891684600E+00 -3.681525145949E+00
 O  -5.033156498713E+00 -5.117888778509E+00  8.158272335295E-01
 O  -6.593895253889E+00 -2.026086958314E+00  5.350596606495E-01
 O  -4.907746448992E+00  4.816683308973E+00  5.787087007094E-01
 O  -1.767501113138E+00 -6.953436227440E+00  5.530552393491E-01
 O   2.010020798811E+00  6.846574357141E+00  5.970142442668E-01
 O  -6.871922933764E+00  1.907630846272E+00  4.485212923644E-01
 O  -1.207909160454E+00  6.725367030933E+00  3.847356349516E+00
 O  -4.915341436397E+00  5.221237166232E+00  3.923013073273E+00
 O  -4.780431748780E+00 -5.480016957819E+00  3.654794687574E+00
 O   5.114975764958E+00  4.930605853569E+00  3.954907654823E+00
 O  -6.149691314228E+00  1.863781180254E+00  3.665909981712E+00
 O   2.312388049671E+00  6.843649472925E+00  4.070566303689E+00
 H  -4.481478219593E+00 -5.454858604495E+00  2.724981304681E+00
